4733
  -OEChem-04262423253D

 36 40  0     0  0  0  0  0  0999 V2000
   -2.4882   -2.6718    0.0000 O   0  0  0  0  0  0  0  0  0  0  0  0
   -2.4883    2.6717   -0.0001 O   0  0  0  0  0  0  0  0  0  0  0  0
    2.4884   -2.6717    0.0007 O   0  0  0  0  0  0  0  0  0  0  0  0
    2.4882    2.6717    0.0017 O   0  0  0  0  0  0  0  0  0  0  0  0
   -1.2132   -0.6977   -0.0002 C   0  0  0  0  0  0  0  0  0  0  0  0
   -1.2131    0.6976   -0.0002 C   0  0  0  0  0  0  0  0  0  0  0  0
    1.2132   -0.6976    0.0006 C   0  0  0  0  0  0  0  0  0  0  0  0
    1.2131    0.6976    0.0006 C   0  0  0  0  0  0  0  0  0  0  0  0
    0.0000   -1.3978    0.0001 C   0  0  0  0  0  0  0  0  0  0  0  0
    0.0000    1.3977    0.0001 C   0  0  0  0  0  0  0  0  0  0  0  0
   -3.7600   -0.6981   -0.0007 C   0  0  0  0  0  0  0  0  0  0  0  0
   -3.7600    0.6981   -0.0010 C   0  0  0  0  0  0  0  0  0  0  0  0
    3.7601   -0.6981    0.0006 C   0  0  0  0  0  0  0  0  0  0  0  0
    3.7600    0.6980    0.0006 C   0  0  0  0  0  0  0  0  0  0  0  0
   -2.4870   -1.4469   -0.0006 C   0  0  0  0  0  0  0  0  0  0  0  0
   -2.4869    1.4468   -0.0007 C   0  0  0  0  0  0  0  0  0  0  0  0
    2.4871   -1.4469    0.0005 C   0  0  0  0  0  0  0  0  0  0  0  0
    2.4870    1.4468    0.0008 C   0  0  0  0  0  0  0  0  0  0  0  0
   -4.9736   -1.3963    0.0003 C   0  0  0  0  0  0  0  0  0  0  0  0
   -4.9736    1.3964   -0.0006 C   0  0  0  0  0  0  0  0  0  0  0  0
    4.9736   -1.3963   -0.0001 C   0  0  0  0  0  0  0  0  0  0  0  0
    4.9735    1.3965   -0.0007 C   0  0  0  0  0  0  0  0  0  0  0  0
   -6.1807   -0.6967    0.0007 C   0  0  0  0  0  0  0  0  0  0  0  0
   -6.1806    0.6968    0.0005 C   0  0  0  0  0  0  0  0  0  0  0  0
    6.1806   -0.6966   -0.0010 C   0  0  0  0  0  0  0  0  0  0  0  0
    6.1805    0.6968   -0.0015 C   0  0  0  0  0  0  0  0  0  0  0  0
    0.0001   -2.4850   -0.0001 H   0  0  0  0  0  0  0  0  0  0  0  0
    0.0000    2.4849    0.0000 H   0  0  0  0  0  0  0  0  0  0  0  0
   -5.0006   -2.4826    0.0007 H   0  0  0  0  0  0  0  0  0  0  0  0
   -5.0005    2.4827   -0.0007 H   0  0  0  0  0  0  0  0  0  0  0  0
    5.0006   -2.4827   -0.0002 H   0  0  0  0  0  0  0  0  0  0  0  0
    5.0004    2.4829   -0.0011 H   0  0  0  0  0  0  0  0  0  0  0  0
   -7.1218   -1.2390    0.0014 H   0  0  0  0  0  0  0  0  0  0  0  0
   -7.1216    1.2392    0.0009 H   0  0  0  0  0  0  0  0  0  0  0  0
    7.1218   -1.2390   -0.0017 H   0  0  0  0  0  0  0  0  0  0  0  0
    7.1216    1.2392   -0.0024 H   0  0  0  0  0  0  0  0  0  0  0  0
  1 15  2  0  0  0  0
  2 16  2  0  0  0  0
  3 17  2  0  0  0  0
  4 18  2  0  0  0  0
  5  6  2  0  0  0  0
  5  9  1  0  0  0  0
  5 15  1  0  0  0  0
  6 10  1  0  0  0  0
  6 16  1  0  0  0  0
  7  8  1  0  0  0  0
  7  9  2  0  0  0  0
  7 17  1  0  0  0  0
  8 10  2  0  0  0  0
  8 18  1  0  0  0  0
  9 27  1  0  0  0  0
 10 28  1  0  0  0  0
 11 12  1  0  0  0  0
 11 15  1  0  0  0  0
 11 19  2  0  0  0  0
 12 16  1  0  0  0  0
 12 20  2  0  0  0  0
 13 14  1  0  0  0  0
 13 17  1  0  0  0  0
 13 21  2  0  0  0  0
 14 18  1  0  0  0  0
 14 22  2  0  0  0  0
 19 23  1  0  0  0  0
 19 29  1  0  0  0  0
 20 24  1  0  0  0  0
 20 30  1  0  0  0  0
 21 25  1  0  0  0  0
 21 31  1  0  0  0  0
 22 26  1  0  0  0  0
 22 32  1  0  0  0  0
 23 24  2  0  0  0  0
 23 33  1  0  0  0  0
 24 34  1  0  0  0  0
 25 26  2  0  0  0  0
 25 35  1  0  0  0  0
 26 36  1  0  0  0  0
M  END
> <PUBCHEM_COMPOUND_CID>
4733

> <PUBCHEM_CONFORMER_RMSD>
0.6

> <PUBCHEM_CONFORMER_DIVERSEORDER>
1

> <PUBCHEM_MMFF94_PARTIAL_CHARGES>
36
1 -0.57
10 -0.15
11 0.09
12 0.09
13 0.09
14 0.09
15 0.4
16 0.4
17 0.4
18 0.4
19 -0.15
2 -0.57
20 -0.15
21 -0.15
22 -0.15
23 -0.15
24 -0.15
25 -0.15
26 -0.15
27 0.15
28 0.15
29 0.15
3 -0.57
30 0.15
31 0.15
32 0.15
33 0.15
34 0.15
35 0.15
36 0.15
4 -0.57
5 0.09
6 0.09
7 0.09
8 0.09
9 -0.15

> <PUBCHEM_EFFECTIVE_ROTOR_COUNT>
0

> <PUBCHEM_PHARMACOPHORE_FEATURES>
9
1 1 acceptor
1 2 acceptor
1 3 acceptor
1 4 acceptor
6 11 12 19 20 23 24 rings
6 13 14 21 22 25 26 rings
6 5 6 11 12 15 16 rings
6 5 6 7 8 9 10 rings
6 7 8 13 14 17 18 rings

> <PUBCHEM_HEAVY_ATOM_COUNT>
26

> <PUBCHEM_ATOM_DEF_STEREO_COUNT>
0

> <PUBCHEM_ATOM_UDEF_STEREO_COUNT>
0

> <PUBCHEM_BOND_DEF_STEREO_COUNT>
0

> <PUBCHEM_BOND_UDEF_STEREO_COUNT>
0

> <PUBCHEM_ISOTOPIC_ATOM_COUNT>
0

> <PUBCHEM_COMPONENT_COUNT>
1

> <PUBCHEM_CACTVS_TAUTO_COUNT>
1

> <PUBCHEM_CONFORMER_ID>
0000127D00000001

> <PUBCHEM_MMFF94_ENERGY>
82.3852

> <PUBCHEM_FEATURE_SELFOVERLAP>
45.758

> <PUBCHEM_SHAPE_FINGERPRINT>
10 15 18336258042371933224
10906281 52 18338536186623331562
11524674 6 16845854602686804007
11578080 2 16915079962219531698
11719270 70 18340762668180190130
11963148 33 18408879663725704018
12107183 9 17690280404512146137
12166972 35 18335143111004832340
12236239 1 18410573985151451140
12516196 113 18131631192541879584
12788726 201 17561087947526473977
12838862 33 18338779174392828000
13402501 40 18410575084663078927
14341114 176 18410015433260384684
14790565 3 18410578383198183105
15183329 4 18410573976561516576
15196674 1 18410855460128161792
15927050 60 17623286483092241436
17857418 61 18411135839893512721
1813 80 17095243613832280892
18681886 176 18342733057356641856
200 152 18131069341920458489
21033648 29 17895459376414496765
21130935 74 18272933812662782442
21236236 1 18341613690237786289
21267235 1 18410863161004724899
21279426 13 18338517421905674678
21421861 104 17896027755343535626
221357 26 18413670210154023528
23402539 116 18341889706231630893
23522609 53 18194714563852726788
23559900 14 18340198691286337281
3004659 81 18334014982779329724
335352 9 18410855477308031421
338550 245 18335143141311430294
34797466 226 17417818365913558628
34934 24 18410852165888778439
350125 39 18410856563940427892
3545911 37 18410856559639802572
3633792 109 18339073797240488477
3680242 22 18261670373009356426
4073 2 18041002894334590418
4214541 1 18410856559798214021
5104073 3 18410856555344823216
59755656 215 18410294700940578950
59755656 520 17095239246130557475
67856867 119 18335985384113962804
9709674 26 18411425002951906263

> <PUBCHEM_SHAPE_MULTIPOLES>
511.59
14.95
2.47
0.6
0
0
0
0
0
0
0
0
0
0

> <PUBCHEM_SHAPE_SELFOVERLAP>
1189.444

> <PUBCHEM_SHAPE_VOLUME>
257.5

> <PUBCHEM_COORDINATE_TYPE>
2
5
10

$$$$
